[TITLE]
;;Project Title/Notes

[OPTIONS]
;;Option             Value
FLOW_UNITS           LPS
INFILTRATION         HORTON
FLOW_ROUTING         DYNWAVE
LINK_OFFSETS         ELEVATION
MIN_SLOPE            0
ALLOW_PONDING        NO
SKIP_STEADY_STATE    NO

START_DATE           02/18/2019
START_TIME           11:35:00
REPORT_START_DATE    02/18/2019
REPORT_START_TIME    11:35:00
END_DATE             02/18/2019
END_TIME             19:50:00
SWEEP_START          01/01
SWEEP_END            12/31
DRY_DAYS             0
REPORT_STEP          00:05:00
WET_STEP             00:05:00
DRY_STEP             01:00:00
ROUTING_STEP         0:00:30 
RULE_STEP            00:00:00

INERTIAL_DAMPING     PARTIAL
NORMAL_FLOW_LIMITED  BOTH
FORCE_MAIN_EQUATION  H-W
VARIABLE_STEP        0.75
LENGTHENING_STEP     0
MIN_SURFAREA         1.167
MAX_TRIALS           8
HEAD_TOLERANCE       0.0015
SYS_FLOW_TOL         5
LAT_FLOW_TOL         5
MINIMUM_STEP         0.5
THREADS              1

[EVAPORATION]
;;Data Source    Parameters
;;-------------- ----------------
CONSTANT         0.0
DRY_ONLY         NO

[RAINGAGES]
;;Name           Format    Interval SCF      Source    
;;-------------- --------- ------ ------ ----------
1                INTENSITY 0:05     1.0      TIMESERIES 1               

[SUBCATCHMENTS]
;;Name           Rain Gage        Outlet           Area     %Imperv  Width    %Slope   CurbLen  SnowPack        
;;-------------- ---------------- ---------------- -------- -------- -------- -------- -------- ----------------
S1               1                J2               4       50       100      0.5      0                        
S2               1                J3               4       50       100      0.5      0                        
S3               1                J4               4       50       100      0.5      0                        

[SUBAREAS]
;;Subcatchment   N-Imperv   N-Perv     S-Imperv   S-Perv     PctZero    RouteTo    PctRouted 
;;-------------- ---------- ---------- ---------- ---------- ---------- ---------- ----------
S1               0.01       0.1        0.05       0.05       25         OUTLET    
S2               0.01       0.1        0.05       0.05       25         OUTLET    
S3               0.01       0.1        0.05       0.05       25         OUTLET    

[INFILTRATION]
;;Subcatchment   Param1     Param2     Param3     Param4     Param5    
;;-------------- ---------- ---------- ---------- ---------- ----------
S1               76         3.03       2          10         0         
S2               76         3.03       2          10         0         
S3               76         3.03       2          10         0         

[JUNCTIONS]
;;Name           Elevation  MaxDepth   InitDepth  SurDepth   Aponded   
;;-------------- ---------- ---------- ---------- ---------- ----------
J1               17         3          0          0          0         
J2               20         2          0          0          0         
J3               20         2          0          0          0         
J4               20         2          0          0          0         
J5               19         2          0          0          0         
J6               19         2          0          0          0         
J7               19         2          0          0          0         

[OUTFALLS]
;;Name           Elevation  Type       Stage Data       Gated    Route To        
;;-------------- ---------- ---------- ---------------- -------- ----------------
Out1             16         FREE                        NO                       

[STORAGE]
;;Name           Elev.    MaxDepth   InitDepth  Shape      Curve Name/Params            N/A      Fevap    Psi      Ksat     IMD     
;;-------------- -------- ---------- ----------- ---------- ---------------------------- -------- --------          -------- --------
1                15       3.5        0          FUNCTIONAL 100       0         0        0        0       
2                15       3.5        0          FUNCTIONAL 100        0         0        0        0       
3                15       3.5          0          FUNCTIONAL 100        0         0        0        0       

[CONDUITS]
;;Name           From Node        To Node          Length     Roughness  InOffset   OutOffset  InitFlow   MaxFlow   
;;-------------- ---------------- ---------------- ---------- ---------- ---------- ---------- ---------- ----------
C1               J2               J5               20         0.01       *          *          0          0         
C2               J3               J6               20         0.01       *          *          0          0         
C3               J4               J7               20         0.01       *          *          0          0         
C4               J1               Out1             10         0.01       *          *          0          0         
C5               J5               J1               5          0.01       1.5          1        0          0         
C6               J6               J1               5          0.01       1.5          1        0          0         
C7               J7               J1               5          0.01       1.5          1        0          0         
C8               1                J1               4          0.01       3          0          0          0         
C9               2                J1               4          0.01       3          0          0          0         
C10              3                J1               4          0.01       3          0          0          0         

[ORIFICES]
;;Name           From Node        To Node          Type         Offset     Qcoeff     Gated    CloseTime 
;;-------------- ---------------- ---------------- ------------ ---------- ---------- -------- ----------
1                J5               1                SIDE         *          0.65       NO       0         
2                J6               2                SIDE         *          0.65       NO       0         
3                J7               3                SIDE         *          0.65       NO       0         

[XSECTIONS]
;;Link           Shape        Geom1            Geom2      Geom3      Geom4      Barrels    Culvert   
;;-------------- ------------ ---------------- ---------- ---------- ---------- ---------- ----------
C1               CIRCULAR     0.5              0          0          0          1                    
C2               CIRCULAR     0.5              0          0          0          1                    
C3               CIRCULAR     0.5              0          0          0          1                    
C4               CIRCULAR     1                0          0          0          1                    
C5               CIRCULAR     0.5              0          0          0          1                    
C6               CIRCULAR     0.5              0          0          0          1                    
C7               CIRCULAR     0.5              0          0          0          1                    
C8               CIRCULAR     0.5                0          0          0          1                    
C9               CIRCULAR     0.5                0          0          0          1                    
C10              CIRCULAR    0.5                0          0          0          1                    
1                CIRCULAR     0.5              0          0          0
2                CIRCULAR     0.3              0          0          0
3                CIRCULAR     0.3              0          0          0

[TIMESERIES]
;;Name           Date       Time       Value     
;;-------------- ---------- ---------- ----------
1                02/18/2019 11:35:00   2.3       
1                02/18/2019 11:40:00   5.6       
1                02/18/2019 11:45:00   2.6       
1                02/18/2019 11:50:00   2.8       
1                02/18/2019 11:55:00   0.9       
1                02/18/2019 12:00:00   0.7       
1                02/18/2019 12:05:00   0.7       
1                02/18/2019 12:10:00   1.4       
1                02/18/2019 12:15:00   1.1       
1                02/18/2019 12:20:00   0.5       
1                02/18/2019 12:25:00   1.7       
1                02/18/2019 12:30:00   0.4       
1                02/18/2019 12:35:00   1.2       
1                02/18/2019 12:40:00   0.5       
1                02/18/2019 12:45:00   0.6       
1                02/18/2019 12:50:00   0.5       
1                02/18/2019 12:55:00   1.3       
1                02/18/2019 13:00:00   0.9       
1                02/18/2019 13:05:00   1         
1                02/18/2019 13:10:00   1.3       
1                02/18/2019 13:15:00   0.9       
1                02/18/2019 13:20:00   1         
1                02/18/2019 13:25:00   0.7       
1                02/18/2019 13:30:00   0.5       
1                02/18/2019 13:35:00   0.2       
1                02/18/2019 13:40:00   0.2       
1                02/18/2019 13:45:00   0.7       
1                02/18/2019 13:50:00   0.8       
1                02/18/2019 13:55:00   0.7       
1                02/18/2019 14:00:00   0.5       
1                02/18/2019 14:05:00   0.7       
1                02/18/2019 14:10:00   0.6       
1                02/18/2019 14:15:00   0.4       
1                02/18/2019 14:20:00   0.7       
1                02/18/2019 14:25:00   0.7       
1                02/18/2019 14:30:00   0.8       
1                02/18/2019 14:35:00   0.5       
1                02/18/2019 14:40:00   0.2       
1                02/18/2019 14:45:00   0.3       
1                02/18/2019 14:50:00   0.6       
1                02/18/2019 14:55:00   0.5       
1                02/18/2019 15:00:00   0.6       
1                02/18/2019 15:05:00   0.8       
1                02/18/2019 15:10:00   0.3       
1                02/18/2019 15:15:00   0.6       
1                02/18/2019 15:20:00   0.3       
1                02/18/2019 15:25:00   0.1       
1                02/18/2019 15:30:00   0.3       
1                02/18/2019 15:35:00   0.4       
1                02/18/2019 15:40:00   0.3       
1                02/18/2019 15:45:00   0.4       
1                02/18/2019 15:50:00   0.3       
1                02/18/2019 15:55:00   0.2       
1                02/18/2019 16:00:00   0.2       
1                02/18/2019 16:05:00   0         
1                02/18/2019 16:10:00   0.1       
1                02/18/2019 16:15:00   0.2       
1                02/18/2019 16:20:00   0         
1                02/18/2019 16:25:00   0.1       
1                02/18/2019 16:30:00   0         
1                02/18/2019 16:35:00   0         
1                02/18/2019 16:40:00   0.1       
1                02/18/2019 16:45:00   0         
1                02/18/2019 16:50:00   0         
1                02/18/2019 16:55:00   0         
1                02/18/2019 17:00:00   0         
1                02/18/2019 17:05:00   0         
1                02/18/2019 17:10:00   0         
1                02/18/2019 17:15:00   0         
1                02/18/2019 17:20:00   0         
1                02/18/2019 17:25:00   0         
1                02/18/2019 17:30:00   0         
1                02/18/2019 17:35:00   0         
1                02/18/2019 17:40:00   0         
1                02/18/2019 17:45:00   0         
1                02/18/2019 17:50:00   0         

[REPORT]
;;Reporting Options
SUBCATCHMENTS ALL
NODES ALL
LINKS ALL

[TAGS]

[MAP]
DIMENSIONS 0.000 0.000 10000.000 10000.000
Units      None

[COORDINATES]
;;Node           X-Coord            Y-Coord           
;;-------------- ------------------ ------------------
J1               2046.205           7255.226          
J2               1235.915           7936.620          
J3               2073.944           7950.704          
J4               3214.789           7947.183          
J5               1556.338           7323.944          
J6               2049.296           7542.254          
J7               2401.408           7313.380          
Out1             2068.207           6281.628          
1                1612.676           7191.901          
2                2135.563           7380.282          
3                2267.606           7186.620          

[VERTICES]
;;Link           X-Coord            Y-Coord           
;;-------------- ------------------ ------------------
2                2112.676           7415.493          

[Polygons]
;;Subcatchment   X-Coord            Y-Coord           
;;-------------- ------------------ ------------------
S1               1298.130           8685.369          
S1               1298.130           8685.369          
S1               1342.134           7975.798          
S1               456.546            7970.297          
S1               467.547            8729.373          
S2               2497.250           8668.867          
S2               2535.754           8014.301          
S2               1804.180           8014.301          
S2               1782.178           8701.870          
S3               3614.307           8616.848          
S3               3658.311           8028.289          
S3               2910.236           8022.789          
S3               2915.737           8627.849          

[SYMBOLS]
;;Gage           X-Coord            Y-Coord           
;;-------------- ------------------ ------------------
1                -1083.608          8987.899          

